*SPEF "1481-1998"
*DESIGN "i2c_master_top"
*DATE "Sat May 11 21:32:37 2024"
*VENDOR "Synopsys, Inc."
*PROGRAM "icc2 /eda/Synopsys/icc2/R-2020.09-SP1/linux64/nwtn/bin/icc2_exec"
*VERSION "R-2020.09-SP1 Oct 19, 2020"
*DESIGN_FLOW "ICC2 SPEF DR"
*DIVIDER /
*DELIMITER :
*T_UNIT 1 NS
*C_UNIT 1 FF
*R_UNIT 1 OHM
*L_UNIT 1 HENRY

// XY_UNIT 1 UM
// PARASITIC_TECH minTLU at -40.000 degree

*NAME_MAP
*1 wb_clk_i
*2 wb_rst_i
*3 arst_i
*4 wb_adr_i[2]
*5 wb_adr_i[1]
*6 wb_adr_i[0]
*7 wb_dat_i[7]
*8 wb_dat_i[6]
*9 wb_dat_i[5]
*10 wb_dat_i[4]
*11 wb_dat_i[3]
*12 wb_dat_i[2]
*13 wb_dat_i[1]
*14 wb_dat_i[0]
*15 wb_dat_o[7]
*16 wb_dat_o[6]
*17 wb_dat_o[5]
*18 wb_dat_o[4]
*19 wb_dat_o[3]
*20 wb_dat_o[2]
*21 wb_dat_o[1]
*22 wb_dat_o[0]
*23 wb_we_i
*24 wb_stb_i
*25 wb_cyc_i
*26 wb_ack_o
*27 wb_inta_o
*28 scl_pad_i
*29 scl_pad_o
*30 scl_padoen_o
*31 sda_pad_i
*32 sda_pad_o
*33 sda_padoen_o
*34 VDD
*35 VSS
*36 GVDD
*37 GVSS
*38 wb_ack_o_reg
*39 ctr_reg_7_
*40 ctr_reg_6_
*41 ctr_reg_5_
*42 ctr_reg_4_
*43 ctr_reg_3_
*44 ctr_reg_2_
*45 ctr_reg_1_
*46 ctr_reg_0_
*47 txr_reg_7_
*48 txr_reg_6_
*49 txr_reg_5_
*50 txr_reg_4_
*51 txr_reg_3_
*52 txr_reg_2_
*53 txr_reg_1_
*54 txr_reg_0_
*55 prer_reg_15_
*56 prer_reg_14_
*57 prer_reg_13_
*58 prer_reg_12_
*59 prer_reg_11_
*60 prer_reg_10_
*61 prer_reg_9_
*62 prer_reg_8_
*63 prer_reg_7_
*64 prer_reg_6_
*65 prer_reg_5_
*66 prer_reg_4_
*67 prer_reg_3_
*68 prer_reg_2_
*69 prer_reg_1_
*70 prer_reg_0_
*71 cr_reg_3_
*72 cr_reg_4_
*73 wb_dat_o_reg_4_
*74 cr_reg_5_
*75 cr_reg_6_
*76 wb_dat_o_reg_6_
*77 cr_reg_7_
*78 wb_dat_o_reg_3_
*79 cr_reg_2_
*80 wb_dat_o_reg_2_
*81 cr_reg_1_
*82 cr_reg_0_
*83 al_reg
*84 wb_dat_o_reg_5_
*85 rxack_reg
*86 wb_dat_o_reg_7_
*87 tip_reg
*88 wb_dat_o_reg_1_
*89 irq_flag_reg
*90 wb_dat_o_reg_0_
*91 wb_inta_o_reg
*92 U3
*93 U4
*94 U6
*95 U9
*96 U11
*97 U13
*98 U14
*99 U16
*100 U17
*101 U19
*102 U21
*103 U22
*104 U23
*105 U24
*106 U25
*107 U26
*108 U27
*109 U28
*110 U29
*111 U30
*112 U33
*113 U34
*114 U35
*115 U36
*116 U37
*117 U38
*118 U39
*119 U40
*120 U43
*121 U44
*122 U45
*123 U46
*124 U47
*125 U48
*126 U49
*127 U50
*128 U52
*129 U54
*130 U56
*131 U58
*132 U60
*133 U62
*134 U64
*135 U66
*136 U67
*137 U71
*138 U72
*139 U73
*140 U74
*141 U76
*142 U78
*143 U79
*144 U80
*145 U82
*146 U84
*147 U85
*148 U86
*149 U88
*150 U91
*151 U94
*152 U96
*153 U99
*154 U102
*155 U105
*156 U108
*157 U109
*158 U110
*159 U112
*160 U114
*161 U115
*162 U116
*163 U117
*164 U118
*165 U119
*166 U120
*167 U122
*168 U123
*169 U124
*170 U127
*171 U130
*172 U132
*173 U134
*174 U139
*175 U142
*176 U145
*177 byte_controller/HFSBUF_392_6
*178 HFSBUF_233_7
*179 byte_controller/bit_controller/ctmTdsLR_1_712
*180 U150
*181 U151
*182 U152
*183 U153
*184 U154
*185 U155
*186 HFSINV_499_14
*187 U157
*188 U158
*189 U159
*190 U160
*191 U161
*192 U162
*193 U163
*194 U164
*195 U165
*196 U166
*197 U167
*198 U168
*199 U169
*200 U170
*201 U171
*202 U172
*203 U173
*204 byte_controller/ld_reg
*205 byte_controller/sr_reg_1_
*206 byte_controller/sr_reg_2_
*207 byte_controller/sr_reg_3_
*208 byte_controller/sr_reg_4_
*209 byte_controller/sr_reg_5_
*210 byte_controller/sr_reg_6_
*211 byte_controller/sr_reg_7_
*212 byte_controller/core_txd_reg
*213 byte_controller/shift_reg
*214 byte_controller/sr_reg_0_
*215 byte_controller/dcnt_reg_0_
*216 byte_controller/dcnt_reg_1_
*217 byte_controller/dcnt_reg_2_
*218 byte_controller/c_state_reg_1_
*219 byte_controller/c_state_reg_4_
*220 byte_controller/cmd_ack_reg
*221 byte_controller/core_cmd_reg_1_
*222 byte_controller/core_cmd_reg_0_
*223 byte_controller/c_state_reg_0_
*224 byte_controller/c_state_reg_2_
*225 byte_controller/c_state_reg_3_
*226 byte_controller/core_cmd_reg_2_
*227 byte_controller/core_cmd_reg_3_
*228 byte_controller/ack_out_reg
*229 byte_controller/U31
*230 byte_controller/U32
*231 byte_controller/U33
*232 byte_controller/U34
*233 byte_controller/U35
*234 byte_controller/U36
*235 byte_controller/U37
*236 byte_controller/U38
*237 byte_controller/U39
*238 byte_controller/U40
*239 byte_controller/U41
*240 byte_controller/U42
*241 byte_controller/U43
*242 byte_controller/U44
*243 byte_controller/U45
*244 byte_controller/U46
*245 byte_controller/U47
*246 byte_controller/U48
*247 byte_controller/U49
*248 byte_controller/U50
*249 byte_controller/U51
*250 byte_controller/U52
*251 byte_controller/U53
*252 byte_controller/U54
*253 byte_controller/U55
*254 byte_controller/U56
*255 byte_controller/U57
*256 byte_controller/U59
*257 byte_controller/U60
*258 byte_controller/U61
*259 byte_controller/U62
*260 byte_controller/U63
*261 byte_controller/U64
*262 byte_controller/U65
*263 byte_controller/U66
*264 byte_controller/U67
*265 byte_controller/U68
*266 byte_controller/U69
*267 byte_controller/U70
*268 byte_controller/U71
*269 byte_controller/U72
*270 byte_controller/U73
*271 byte_controller/U74
*272 byte_controller/U75
*273 byte_controller/U76
*274 byte_controller/U77
*275 byte_controller/U78
*276 byte_controller/U79
*277 HFSBUF_526_15
*278 cts_inv_260695
*279 HFSBUF_643_8
*280 byte_controller/U6
*281 byte_controller/U7
*282 byte_controller/U8
*283 cts_inv_264699
*284 byte_controller/U10
*285 byte_controller/U11
*286 byte_controller/U12
*287 byte_controller/U14
*288 byte_controller/U15
*289 byte_controller/U16
*290 byte_controller/U17
*291 byte_controller/U18
*292 byte_controller/U19
*293 byte_controller/U20
*294 byte_controller/U21
*295 byte_controller/U22
*296 byte_controller/U23
*297 byte_controller/U24
*298 byte_controller/U25
*299 byte_controller/U26
*300 byte_controller/U27
*301 byte_controller/U28
*302 byte_controller/U29
*303 byte_controller/U30
*304 byte_controller/U58
*305 byte_controller/U80
*306 byte_controller/U81
*307 byte_controller/U82
*308 byte_controller/bit_controller/cSDA_reg_0_
*309 byte_controller/bit_controller/cSDA_reg_1_
*310 byte_controller/bit_controller/cSCL_reg_0_
*311 byte_controller/bit_controller/cSCL_reg_1_
*312 byte_controller/bit_controller/filter_cnt_reg_0_
*313 byte_controller/bit_controller/filter_cnt_reg_7_
*314 byte_controller/bit_controller/filter_cnt_reg_1_
*315 byte_controller/bit_controller/filter_cnt_reg_2_
*316 byte_controller/bit_controller/filter_cnt_reg_3_
*317 byte_controller/bit_controller/filter_cnt_reg_4_
*318 byte_controller/bit_controller/filter_cnt_reg_5_
*319 byte_controller/bit_controller/filter_cnt_reg_6_
*320 byte_controller/bit_controller/filter_cnt_reg_8_
*321 byte_controller/bit_controller/filter_cnt_reg_9_
*322 byte_controller/bit_controller/filter_cnt_reg_10_
*323 byte_controller/bit_controller/filter_cnt_reg_11_
*324 byte_controller/bit_controller/filter_cnt_reg_12_
*325 byte_controller/bit_controller/filter_cnt_reg_13_
*326 byte_controller/bit_controller/fSCL_reg_0_
*327 byte_controller/bit_controller/fSCL_reg_1_
*328 byte_controller/bit_controller/fSCL_reg_2_
*329 byte_controller/bit_controller/fSDA_reg_0_
*330 byte_controller/bit_controller/fSDA_reg_1_
*331 byte_controller/bit_controller/fSDA_reg_2_
*332 byte_controller/bit_controller/sSCL_reg
*333 byte_controller/bit_controller/dSCL_reg
*334 byte_controller/bit_controller/sSDA_reg
*335 byte_controller/bit_controller/dSDA_reg
*336 byte_controller/bit_controller/sta_condition_reg
*337 byte_controller/bit_controller/sto_condition_reg
*338 byte_controller/bit_controller/busy_reg
*339 byte_controller/bit_controller/dout_reg
*340 byte_controller/bit_controller/c_state_reg_0_
*341 byte_controller/bit_controller/scl_oen_reg
*342 byte_controller/bit_controller/dscl_oen_reg
*343 byte_controller/bit_controller/slave_wait_reg
*344 byte_controller/bit_controller/cnt_reg_0_
*345 byte_controller/bit_controller/clk_en_reg
*346 byte_controller/bit_controller/cmd_stop_reg
*347 byte_controller/bit_controller/c_state_reg_1_
*348 byte_controller/bit_controller/c_state_reg_2_
*349 byte_controller/bit_controller/c_state_reg_3_
*350 byte_controller/bit_controller/c_state_reg_4_
*351 byte_controller/bit_controller/c_state_reg_13_
*352 byte_controller/bit_controller/c_state_reg_14_
*353 byte_controller/bit_controller/c_state_reg_15_
*354 byte_controller/bit_controller/sda_chk_reg
*355 byte_controller/bit_controller/c_state_reg_16_
*356 byte_controller/bit_controller/c_state_reg_5_
*357 byte_controller/bit_controller/c_state_reg_6_
*358 byte_controller/bit_controller/c_state_reg_7_
*359 byte_controller/bit_controller/c_state_reg_8_
*360 byte_controller/bit_controller/c_state_reg_9_
*361 byte_controller/bit_controller/c_state_reg_10_
*362 byte_controller/bit_controller/c_state_reg_11_
*363 byte_controller/bit_controller/c_state_reg_12_
*364 byte_controller/bit_controller/sda_oen_reg
*365 byte_controller/bit_controller/al_reg
*366 byte_controller/bit_controller/cmd_ack_reg
*367 byte_controller/bit_controller/cnt_reg_15_
*368 byte_controller/bit_controller/cnt_reg_1_
*369 byte_controller/bit_controller/cnt_reg_2_
*370 byte_controller/bit_controller/cnt_reg_3_
*371 byte_controller/bit_controller/cnt_reg_4_
*372 byte_controller/bit_controller/cnt_reg_5_
*373 byte_controller/bit_controller/cnt_reg_6_
*374 byte_controller/bit_controller/cnt_reg_7_
*375 byte_controller/bit_controller/cnt_reg_8_
*376 byte_controller/bit_controller/cnt_reg_9_
*377 byte_controller/bit_controller/cnt_reg_10_
*378 byte_controller/bit_controller/cnt_reg_11_
*379 byte_controller/bit_controller/cnt_reg_12_
*380 byte_controller/bit_controller/cnt_reg_13_
*381 byte_controller/bit_controller/cnt_reg_14_
*382 byte_controller/bit_controller/U3
*383 byte_controller/bit_controller/U6
*384 byte_controller/bit_controller/U7
*385 byte_controller/bit_controller/U9
*386 byte_controller/bit_controller/U11
*387 byte_controller/bit_controller/U12
*388 byte_controller/bit_controller/U14
*389 byte_controller/bit_controller/U16
*390 byte_controller/bit_controller/U18
*391 byte_controller/bit_controller/U20
*392 byte_controller/bit_controller/U22
*393 byte_controller/bit_controller/U24
*394 byte_controller/bit_controller/U26
*395 byte_controller/bit_controller/U28
*396 byte_controller/bit_controller/U30
*397 byte_controller/bit_controller/U32
*398 byte_controller/bit_controller/U34
*399 byte_controller/bit_controller/U36
*400 byte_controller/bit_controller/U38
*401 byte_controller/bit_controller/U40
*402 byte_controller/bit_controller/U42
*403 byte_controller/bit_controller/U46
*404 byte_controller/bit_controller/U47
*405 byte_controller/bit_controller/U48
*406 byte_controller/bit_controller/U49
*407 byte_controller/bit_controller/U51
*408 byte_controller/bit_controller/U53
*409 byte_controller/bit_controller/U54
*410 byte_controller/bit_controller/U55
*411 byte_controller/bit_controller/U56
*412 byte_controller/bit_controller/U60
*413 byte_controller/bit_controller/U61
*414 byte_controller/bit_controller/U63
*415 byte_controller/bit_controller/U64
*416 byte_controller/bit_controller/U67
*417 byte_controller/bit_controller/U68
*418 byte_controller/bit_controller/U69
*419 byte_controller/bit_controller/U71
*420 byte_controller/bit_controller/U72
*421 byte_controller/bit_controller/U75
*422 byte_controller/bit_controller/U76
*423 byte_controller/bit_controller/U78
*424 byte_controller/bit_controller/U79
*425 byte_controller/bit_controller/U80
*426 byte_controller/bit_controller/U83
*427 byte_controller/bit_controller/U88
*428 byte_controller/bit_controller/U89
*429 byte_controller/bit_controller/U92
*430 byte_controller/bit_controller/U93
*431 byte_controller/bit_controller/U94
*432 byte_controller/bit_controller/U100
*433 byte_controller/bit_controller/U101
*434 byte_controller/bit_controller/U102
*435 byte_controller/bit_controller/U103
*436 byte_controller/bit_controller/U104
*437 byte_controller/bit_controller/U105
*438 byte_controller/bit_controller/U107
*439 byte_controller/bit_controller/U108
*440 byte_controller/bit_controller/U109
*441 byte_controller/bit_controller/U110
*442 byte_controller/bit_controller/U111
*443 byte_controller/bit_controller/U112
*444 byte_controller/bit_controller/U113
*445 byte_controller/bit_controller/U115
*446 byte_controller/bit_controller/U117
*447 byte_controller/bit_controller/U119
*448 byte_controller/bit_controller/U120
*449 byte_controller/bit_controller/copt_h_inst_713
*450 copt_h_inst_714
*451 byte_controller/bit_controller/U122
*452 byte_controller/bit_controller/U123
*453 byte_controller/bit_controller/U124
*454 byte_controller/bit_controller/U125
*455 byte_controller/bit_controller/U129
*456 byte_controller/bit_controller/U133
*457 byte_controller/bit_controller/U135
*458 byte_controller/bit_controller/U138
*459 byte_controller/bit_controller/U139
*460 byte_controller/bit_controller/U143
*461 byte_controller/bit_controller/U144
*462 byte_controller/bit_controller/U145
*463 byte_controller/bit_controller/U146
*464 byte_controller/bit_controller/U152
*465 byte_controller/bit_controller/U153
*466 byte_controller/bit_controller/U155
*467 byte_controller/bit_controller/U156
*468 byte_controller/bit_controller/U161
*469 byte_controller/bit_controller/U166
*470 byte_controller/bit_controller/U171
*471 byte_controller/bit_controller/U172
*472 byte_controller/bit_controller/U173
*473 byte_controller/bit_controller/U174
*474 byte_controller/bit_controller/U175
*475 byte_controller/bit_controller/U176
*476 byte_controller/bit_controller/U177
*477 byte_controller/bit_controller/U182
*478 byte_controller/bit_controller/U183
*479 byte_controller/bit_controller/U184
*480 byte_controller/bit_controller/U185
*481 HFSBUF_92_9
*482 byte_controller/bit_controller/copt_h_inst_715
*483 HFSBUF_1071_10
*484 byte_controller/bit_controller/copt_h_inst_716
*485 byte_controller/bit_controller/HFSINV_380_12
*486 copt_h_inst_717
*487 byte_controller/copt_h_inst_718
*488 byte_controller/bit_controller/U25
*489 byte_controller/bit_controller/U27
*490 byte_controller/bit_controller/U29
*491 byte_controller/bit_controller/U31
*492 byte_controller/bit_controller/U33
*493 byte_controller/bit_controller/U35
*494 byte_controller/bit_controller/U37
*495 byte_controller/bit_controller/U39
*496 byte_controller/bit_controller/copt_h_inst_719
*497 byte_controller/bit_controller/U43
*498 byte_controller/bit_controller/U44
*499 byte_controller/bit_controller/U45
*500 byte_controller/bit_controller/U50
*501 byte_controller/bit_controller/U52
*502 byte_controller/bit_controller/U57
*503 byte_controller/bit_controller/U58
*504 byte_controller/bit_controller/U59
*505 byte_controller/bit_controller/U62
*506 byte_controller/bit_controller/U65
*507 byte_controller/bit_controller/U66
*508 byte_controller/bit_controller/U70
*509 byte_controller/bit_controller/U73
*510 byte_controller/bit_controller/U74
*511 byte_controller/bit_controller/U77
*512 byte_controller/bit_controller/U81
*513 byte_controller/bit_controller/U82
*514 byte_controller/bit_controller/U84
*515 byte_controller/bit_controller/U85
*516 byte_controller/bit_controller/U86
*517 byte_controller/bit_controller/U87
*518 byte_controller/bit_controller/U90
*519 byte_controller/bit_controller/U91
*520 byte_controller/bit_controller/U95
*521 byte_controller/bit_controller/U96
*522 byte_controller/bit_controller/U97
*523 byte_controller/bit_controller/U98
*524 byte_controller/bit_controller/U99
*525 byte_controller/bit_controller/U106
*526 byte_controller/bit_controller/U114
*527 byte_controller/bit_controller/U116
*528 byte_controller/bit_controller/U118
*529 byte_controller/bit_controller/U126
*530 byte_controller/bit_controller/U127
*531 byte_controller/bit_controller/sub_260/U1
*532 byte_controller/bit_controller/sub_260/U2
*533 byte_controller/bit_controller/sub_260/U3
*534 byte_controller/bit_controller/sub_260/U4
*535 byte_controller/bit_controller/sub_260/U5
*536 byte_controller/bit_controller/sub_260/U6
*537 byte_controller/bit_controller/sub_260/U7
*538 byte_controller/bit_controller/sub_260/U8
*539 byte_controller/bit_controller/sub_260/U9
*540 byte_controller/bit_controller/sub_260/U10
*541 byte_controller/bit_controller/sub_260/U11
*542 byte_controller/bit_controller/sub_260/U12
*543 byte_controller/bit_controller/sub_260/U13
*544 byte_controller/bit_controller/sub_260/U14
*545 byte_controller/bit_controller/sub_260/U15
*546 byte_controller/bit_controller/sub_260/U16
*547 byte_controller/bit_controller/sub_260/U17
*548 byte_controller/bit_controller/sub_260/U18
*549 byte_controller/bit_controller/sub_260/U19
*550 byte_controller/bit_controller/sub_260/U20
*551 byte_controller/bit_controller/sub_260/U21
*552 byte_controller/bit_controller/sub_260/U22
*553 byte_controller/bit_controller/sub_260/U23
*554 byte_controller/bit_controller/sub_260/U24
*555 byte_controller/bit_controller/sub_260/U25
*556 byte_controller/bit_controller/sub_260/U26
*557 byte_controller/bit_controller/sub_260/U27
*558 byte_controller/bit_controller/sub_260/U28
*559 byte_controller/bit_controller/sub_260/U29
*560 byte_controller/bit_controller/sub_260/U30
*561 byte_controller/bit_controller/sub_260/U31
*562 byte_controller/bit_controller/sub_260/U32
*563 byte_controller/bit_controller/sub_260/U33
*564 byte_controller/bit_controller/sub_260/U34
*565 byte_controller/bit_controller/sub_260/U35
*566 byte_controller/bit_controller/sub_260/U36
*567 byte_controller/bit_controller/sub_260/U37
*568 byte_controller/bit_controller/sub_228/U1
*569 byte_controller/bit_controller/sub_228/U2
*570 byte_controller/bit_controller/sub_228/U3
*571 byte_controller/bit_controller/sub_228/U4
*572 byte_controller/bit_controller/sub_228/U5
*573 byte_controller/bit_controller/sub_228/U6
*574 byte_controller/bit_controller/sub_228/U7
*575 byte_controller/bit_controller/sub_228/U8
*576 byte_controller/bit_controller/sub_228/U9
*577 byte_controller/bit_controller/sub_228/U10
*578 byte_controller/bit_controller/sub_228/U11
*579 byte_controller/bit_controller/sub_228/U12
*580 byte_controller/bit_controller/sub_228/U13
*581 byte_controller/bit_controller/sub_228/U14
*582 byte_controller/bit_controller/sub_228/U15
*583 byte_controller/bit_controller/sub_228/U16
*584 byte_controller/bit_controller/sub_228/U17
*585 byte_controller/bit_controller/sub_228/U18
*586 byte_controller/bit_controller/sub_228/U19
*587 byte_controller/bit_controller/sub_228/U20
*588 byte_controller/bit_controller/sub_228/U21
*589 byte_controller/bit_controller/sub_228/U22
*590 byte_controller/bit_controller/sub_228/U23
*591 byte_controller/bit_controller/sub_228/U24
*592 byte_controller/bit_controller/sub_228/U25
*593 byte_controller/bit_controller/sub_228/U26
*594 byte_controller/bit_controller/sub_228/U27
*595 byte_controller/bit_controller/sub_228/U28
*596 byte_controller/bit_controller/sub_228/U29
*597 byte_controller/bit_controller/sub_228/U30
*598 byte_controller/bit_controller/sub_228/U31
*599 byte_controller/bit_controller/sub_228/U32
*600 byte_controller/bit_controller/sub_228/U33
*601 byte_controller/bit_controller/sub_228/U34
*602 byte_controller/bit_controller/sub_228/U35
*603 byte_controller/bit_controller/sub_228/U36
*604 byte_controller/bit_controller/sub_228/U37
*605 byte_controller/bit_controller/sub_228/U38
*606 byte_controller/bit_controller/sub_228/U39
*607 byte_controller/bit_controller/sub_228/U40
*608 byte_controller/bit_controller/sub_228/U41
*609 byte_controller/bit_controller/sub_228/U42
*610 byte_controller/bit_controller/sub_228/U43
*611 copt_h_inst_720
*612 copt_h_inst_721
*613 copt_h_inst_722
*614 byte_controller/HFSINV_268_5
*615 copt_h_inst_723
*616 byte_controller/bit_controller/copt_h_inst_724
*617 copt_h_inst_725
*618 copt_h_inst_726
*619 byte_controller/bit_controller/copt_h_inst_727
*620 xofiller!SHFILL1!x174400y120000
*621 copt_h_inst_729
*622 byte_controller/bit_controller/copt_h_inst_730
*623 copt_h_inst_731
*624 byte_controller/bit_controller/copt_h_inst_732
*625 copt_h_inst_733
*626 byte_controller/bit_controller/copt_h_inst_734
*627 xofiller!SHFILL1!x177600y120000
*628 xofiller!SHFILL1!x180800y120000
*629 copt_h_inst_736
*630 copt_h_inst_737
*631 copt_h_inst_738
*632 copt_h_inst_739
*633 xofiller!SHFILL1!x228800y120000
*634 xofiller!SHFILL1!x232000y120000
*635 copt_h_inst_741
*636 copt_h_inst_742
*637 copt_h_inst_743
*638 copt_h_inst_744
*639 copt_h_inst_745
*640 copt_h_inst_746
*641 copt_h_inst_747
*642 copt_h_inst_748
*643 byte_controller/copt_h_inst_749
*644 copt_h_inst_750
*645 copt_h_inst_751
*646 copt_h_inst_752
*647 byte_controller/bit_controller/copt_h_inst_753
*648 copt_h_inst_754
*649 copt_h_inst_755
*650 copt_h_inst_756
*651 copt_h_inst_757
*652 copt_h_inst_758
*653 copt_h_inst_759
*654 byte_controller/copt_h_inst_760
*655 copt_h_inst_761
*656 copt_h_inst_762
*657 byte_controller/bit_controller/copt_h_inst_763
*658 byte_controller/copt_h_inst_764
*659 byte_controller/copt_h_inst_765
*660 byte_controller/copt_h_inst_766
*661 byte_controller/bit_controller/copt_h_inst_767
*662 byte_controller/bit_controller/copt_h_inst_768
*663 copt_h_inst_769
*664 copt_h_inst_770
*665 copt_h_inst_771
*666 byte_controller/copt_h_inst_772
*667 copt_h_inst_773
*668 byte_controller/copt_h_inst_774
*669 byte_controller/copt_h_inst_775
*670 copt_h_inst_776
*671 xofiller!SHFILL1!x235200y120000
*672 xofiller!SHFILL1!x292800y120000
*673 byte_controller/copt_h_inst_778
*674 copt_h_inst_779
*675 byte_controller/copt_h_inst_780
*676 copt_h_inst_781
*677 byte_controller/bit_controller/copt_h_inst_782
*678 byte_controller/bit_controller/copt_h_inst_783
*679 byte_controller/copt_h_inst_784
*680 byte_controller/bit_controller/copt_h_inst_785
*681 byte_controller/bit_controller/copt_h_inst_786
*682 byte_controller/bit_controller/copt_h_inst_787
*683 byte_controller/bit_controller/copt_h_inst_788
*684 byte_controller/bit_controller/copt_h_inst_789
*685 byte_controller/bit_controller/copt_h_inst_790
*686 byte_controller/bit_controller/copt_h_inst_791
*687 byte_controller/bit_controller/copt_h_inst_792
*688 byte_controller/bit_controller/copt_h_inst_793
*689 byte_controller/bit_controller/copt_h_inst_794
*690 xofiller!SHFILL1!x296000y120000
*691 xofiller!SHFILL1!x299200y120000
*692 byte_controller/copt_h_inst_796
*693 byte_controller/bit_controller/copt_h_inst_797
*694 byte_controller/bit_controller/copt_h_inst_798
*695 byte_controller/bit_controller/copt_h_inst_799
*696 byte_controller/bit_controller/copt_h_inst_800
*697 byte_controller/bit_controller/copt_h_inst_801
*698 xofiller!SHFILL1!x334400y120000
*699 xofiller!SHFILL1!x337600y120000
*700 byte_controller/bit_controller/copt_h_inst_803
*701 byte_controller/copt_h_inst_804
*702 byte_controller/bit_controller/copt_h_inst_805
*703 byte_controller/bit_controller/copt_h_inst_806
*704 xofiller!SHFILL1!x340800y120000
*705 xofiller!SHFILL1!x344000y120000
*706 byte_controller/bit_controller/copt_h_inst_808
*707 byte_controller/bit_controller/copt_h_inst_809
*708 copt_h_inst_810
*709 copt_h_inst_811
*710 byte_controller/bit_controller/copt_h_inst_812
*711 copt_h_inst_813
*712 copt_h_inst_814
*713 copt_h_inst_815
*714 copt_h_inst_816
*715 copt_h_inst_817
*716 copt_h_inst_818
*717 copt_h_inst_819
*718 copt_h_inst_820
*719 copt_h_inst_821
*720 byte_controller/copt_h_inst_822
*721 byte_controller/copt_h_inst_823
*722 byte_controller/copt_h_inst_824
*723 byte_controller/copt_h_inst_825
*724 byte_controller/bit_controller/copt_h_inst_826
*725 byte_controller/bit_controller/copt_h_inst_827
*726 byte_controller/bit_controller/copt_h_inst_828
*727 byte_controller/bit_controller/copt_h_inst_829
*728 byte_controller/bit_controller/copt_h_inst_830
*729 byte_controller/bit_controller/copt_h_inst_831
*730 byte_controller/bit_controller/copt_h_inst_832
*731 byte_controller/bit_controller/copt_h_inst_833
*732 byte_controller/bit_controller/copt_h_inst_834
*733 byte_controller/bit_controller/copt_h_inst_835
*734 byte_controller/bit_controller/copt_h_inst_836
*735 byte_controller/bit_controller/copt_h_inst_837
*736 byte_controller/bit_controller/copt_h_inst_838
*737 byte_controller/bit_controller/copt_h_inst_839
*738 byte_controller/bit_controller/copt_h_inst_840
*739 byte_controller/bit_controller/copt_h_inst_841
*740 byte_controller/bit_controller/copt_h_inst_842
*741 byte_controller/gre_h_inst_907
*742 byte_controller/bit_controller/copt_h_inst_844
*743 byte_controller/bit_controller/copt_h_inst_845
*744 byte_controller/bit_controller/copt_h_inst_846
*745 byte_controller/bit_controller/copt_h_inst_847
*746 byte_controller/bit_controller/copt_h_inst_848
*747 byte_controller/bit_controller/copt_h_inst_849
*748 byte_controller/bit_controller/copt_h_inst_850
*749 copt_h_inst_851
*750 byte_controller/copt_h_inst_852
*751 byte_controller/bit_controller/copt_h_inst_853
*752 byte_controller/bit_controller/sub_260/copt_h_inst_854
*753 byte_controller/bit_controller/copt_h_inst_855
*754 xofiller!SHFILL1!x382400y120000
*755 xofiller!SHFILL1!x385600y120000
*756 byte_controller/copt_h_inst_857
*757 xofiller!SHFILL1!x388800y120000
*758 xofiller!SHFILL1!x392000y120000
*759 byte_controller/bit_controller/copt_h_inst_859
*760 byte_controller/bit_controller/sub_260/copt_h_inst_860
*761 byte_controller/copt_h_inst_861
*762 byte_controller/bit_controller/sub_260/copt_h_inst_862
*763 byte_controller/copt_h_inst_863
*764 byte_controller/copt_h_inst_864
*765 xofiller!SHFILL1!x395200y120000
*766 xofiller!SHFILL1!x417600y120000
*767 xofiller!SHFILL1!x420800y120000
*768 xofiller!SHFILL1!x424000y120000
*769 byte_controller/bit_controller/copt_h_inst_867
*770 xofiller!SHFILL1!x427200y120000
*771 xofiller!SHFILL1!x430400y120000
*772 byte_controller/copt_h_inst_869
*773 xofiller!SHFILL1!x456000y120000
*774 xofiller!SHFILL1!x459200y120000
*775 byte_controller/copt_h_inst_871
*776 xofiller!SHFILL1!x462400y120000
*777 xofiller!SHFILL1!x516800y120000
*778 byte_controller/bit_controller/copt_h_inst_873
*779 byte_controller/copt_h_inst_874
*780 byte_controller/bit_controller/copt_h_inst_875
*781 byte_controller/bit_controller/copt_h_inst_876
*782 xofiller!SHFILL1!x520000y120000
*783 xofiller!SHFILL1!x523200y120000
*784 byte_controller/bit_controller/copt_h_inst_878
*785 byte_controller/bit_controller/copt_h_inst_879
*786 byte_controller/copt_h_inst_880
*787 byte_controller/copt_h_inst_881
*788 byte_controller/bit_controller/copt_h_inst_882
*789 byte_controller/bit_controller/copt_h_inst_883
*790 byte_controller/bit_controller/copt_h_inst_884
*791 byte_controller/bit_controller/copt_h_inst_885
*792 byte_controller/bit_controller/copt_h_inst_886
*793 byte_controller/bit_controller/copt_h_inst_887
*794 xofiller!SHFILL1!x526400y120000
*795 xofiller!SHFILL1!x529600y120000
*796 byte_controller/copt_h_inst_889
*797 byte_controller/copt_h_inst_890
*798 byte_controller/bit_controller/copt_h_inst_891
*799 byte_controller/copt_h_inst_892
*800 byte_controller/bit_controller/copt_h_inst_893
*801 byte_controller/bit_controller/copt_h_inst_894
*802 byte_controller/bit_controller/copt_h_inst_895
*803 xofiller!SHFILL1!x532800y120000
*804 xofiller!SHFILL1!x536000y120000
*805 byte_controller/bit_controller/copt_h_inst_897
*806 byte_controller/copt_h_inst_898
*807 byte_controller/copt_h_inst_899
*808 byte_controller/bit_controller/copt_h_inst_900
*809 byte_controller/bit_controller/copt_h_inst_901
*810 byte_controller/copt_h_inst_902
*811 byte_controller/bit_controller/copt_h_inst_903
*812 byte_controller/bit_controller/copt_h_inst_904
*813 xofiller!SHFILL1!x539200y120000
*814 xofiller!SHFILL1!x542400y120000
*815 xofiller!SHFILL1!x657600y120000
*816 xofiller!SHFILL1!x660800y120000
*817 byte_controller/gre_h_inst_908
*818 xofiller!SHFILL1!x664000y120000
*819 xofiller!SHFILL1!x667200y120000
*820 xofiller!SHFILL1!x670400y120000
*821 xofiller!SHFILL1!x785600y120000
*822 xofiller!SHFILL1!x788800y120000
*823 xofiller!SHFILL1!x792000y120000
*824 xofiller!SHFILL1!x795200y120000
*825 xofiller!SHFILL1!x798400y120000
*826 xofiller!SHFILL1!x801600y120000
*827 xofiller!SHFILL1!x804800y120000
*828 xofiller!SHFILL1!x808000y120000
*829 xofiller!SHFILL1!x811200y120000
*830 xofiller!SHFILL1!x814400y120000
*831 xofiller!SHFILL1!x817600y120000
*832 xofiller!SHFILL1!x872000y120000
*833 xofiller!SHFILL1!x875200y120000
*834 xofiller!SHFILL1!x878400y120000
*835 xofiller!SHFILL1!x881600y120000
*836 xofiller!SHFILL1!x884800y120000
*837 xofiller!SHFILL1!x888000y120000
*838 xofiller!SHFILL1!x891200y120000
*839 xofiller!SHFILL1!x894400y120000
*840 xofiller!SHFILL1!x897600y120000
*841 xofiller!SHFILL1!x900800y120000
*842 xofiller!SHFILL1!x904000y120000
*843 xofiller!SHFILL1!x907200y120000
*844 xofiller!SHFILL1!x1131200y120000
*845 xofiller!SHFILL1!x1134400y120000
*846 xofiller!SHFILL1!x1137600y120000
*847 xofiller!SHFILL1!x1252800y120000
*848 xofiller!SHFILL1!x1256000y120000
*849 xofiller!SHFILL1!x1259200y120000
*850 xofiller!SHFILL1!x1313600y120000
*851 xofiller!SHFILL1!x120000y148800
*852 xofiller!SHFILL1!x123200y148800
*853 xofiller!SHFILL1!x126400y148800
*854 xofiller!SHFILL1!x129600y148800
*855 xofiller!SHFILL1!x132800y148800
*856 xofiller!SHFILL1!x136000y148800
*857 xofiller!SHFILL1!x139200y148800
*858 xofiller!SHFILL1!x254400y148800
*859 xofiller!SHFILL1!x257600y148800
*860 xofiller!SHFILL1!x260800y148800
*861 xofiller!SHFILL1!x264000y148800
*862 xofiller!SHFILL1!x267200y148800
*863 xofiller!SHFILL1!x270400y148800
*864 xofiller!SHFILL1!x273600y148800
*865 xofiller!SHFILL1!x276800y148800
*866 xofiller!SHFILL1!x356800y148800
*867 xofiller!SHFILL1!x360000y148800
*868 xofiller!SHFILL1!x363200y148800
*869 xofiller!SHFILL1!x366400y148800
*870 xofiller!SHFILL1!x593600y148800
*871 xofiller!SHFILL1!x596800y148800
*872 xofiller!SHFILL1!x600000y148800
*873 xofiller!SHFILL1!x603200y148800
*874 xofiller!SHFILL1!x606400y148800
*875 xofiller!SHFILL1!x609600y148800
*876 xofiller!SHFILL1!x612800y148800
*877 xofiller!SHFILL1!x616000y148800
*878 xofiller!SHFILL1!x660800y148800
*879 xofiller!SHFILL1!x664000y148800
*880 xofiller!SHFILL1!x667200y148800
*881 xofiller!SHFILL1!x670400y148800
*882 xofiller!SHFILL1!x673600y148800
*883 xofiller!SHFILL1!x718400y148800
*884 xofiller!SHFILL1!x721600y148800
*885 xofiller!SHFILL1!x724800y148800
*886 xofiller!SHFILL1!x728000y148800
*887 xofiller!SHFILL1!x772800y148800
*888 xofiller!SHFILL1!x776000y148800
*889 xofiller!SHFILL1!x779200y148800
*890 xofiller!SHFILL1!x782400y148800